@<TRIPOS>MOLECULE
UNL
    6     5     1     0     0
SMALL
bcc


@<TRIPOS>ATOM
      1 C           -2.9910     0.5860     0.0030 c3         1 UNL      -0.045000
      2 C1          -1.8410    -0.3290     0.0000 c1         1 UNL       0.208700
      3 H           -3.9140     0.0290     0.1710 hc         1 UNL       0.070700
      4 H1          -3.0610     1.1040    -0.9560 hc         1 UNL       0.070700
      5 H2          -2.8780     1.3280     0.7970 hc         1 UNL       0.070700
      6 N           -0.9330    -1.0150    -0.0020 n1         1 UNL      -0.375800
@<TRIPOS>BOND
     1     1     2 1   
     2     1     3 1   
     3     1     4 1   
     4     1     5 1   
     5     2     6 3   
@<TRIPOS>SUBSTRUCTURE
     1 UNL         1 TEMP              0 ****  ****    0 ROOT
